<additional>
    <laneAreaDetector id="laneAreaDetector.E0" lane="E_0" length="800" freq="100" pos="-800" file="laneAreaDetector.E0.xml"/>
    <laneAreaDetector id="laneAreaDetector.E1" lane="E_1" length="800" freq="100" pos="-800" file="laneAreaDetector.E1.xml"/>
    <laneAreaDetector id="laneAreaDetector.E2" lane="E_2" length="800" freq="100" pos="-800" file="laneAreaDetector.E2.xml"/>
    <laneAreaDetector id="laneAreaDetector.E3" lane="E_3" length="800" freq="100" pos="-800" file="laneAreaDetector.E3.xml"/>

    <laneAreaDetector id="laneAreaDetector.W0" lane="W_0" length="800" freq="100" pos="-800" file="laneAreaDetector.W0.xml"/>
    <laneAreaDetector id="laneAreaDetector.W1" lane="W_1" length="800" freq="100" pos="-800" file="laneAreaDetector.W1.xml"/>
    <laneAreaDetector id="laneAreaDetector.W2" lane="W_2" length="800" freq="100" pos="-800" file="laneAreaDetector.W2.xml"/>
    <laneAreaDetector id="laneAreaDetector.W3" lane="W_3" length="800" freq="100" pos="-800" file="laneAreaDetector.W3.xml"/>
    <laneAreaDetector id="laneAreaDetector.W4" lane="W_4" length="800" freq="100" pos="-800" file="laneAreaDetector.W4.xml"/>

    <laneAreaDetector id="laneAreaDetector.N0" lane="N_0" length="800" freq="100" pos="-800" file="laneAreaDetector.N0.xml"/>
    <laneAreaDetector id="laneAreaDetector.N1" lane="N_1" length="800" freq="100" pos="-800" file="laneAreaDetector.N1.xml"/>
    <laneAreaDetector id="laneAreaDetector.N2" lane="N_2" length="800" freq="100" pos="-800" file="laneAreaDetector.N2.xml"/>
    <laneAreaDetector id="laneAreaDetector.N3" lane="N_3" length="800" freq="100" pos="-800" file="laneAreaDetector.N3.xml"/>

    <laneAreaDetector id="laneAreaDetector.S0" lane="S_0" length="800" freq="100" pos="-800" file="laneAreaDetector.S0.xml"/>
    <laneAreaDetector id="laneAreaDetector.S1" lane="S_1" length="800" freq="100" pos="-800" file="laneAreaDetector.S1.xml"/>
    <laneAreaDetector id="laneAreaDetector.S2" lane="S_2" length="800" freq="100" pos="-800" file="laneAreaDetector.S2.xml"/>
    <laneAreaDetector id="laneAreaDetector.S3" lane="S_3" length="800" freq="100" pos="-800" file="laneAreaDetector.S3.xml"/>


    <inductionLoop id="inductionLoop.E0" lane="E_0" freq="100" pos="-27.78" file="inductionLoop.E0.xml"/>
    <inductionLoop id="inductionLoop.E1" lane="E_1" freq="100" pos="-27.78" file="inductionLoop.E1.xml"/>
    <inductionLoop id="inductionLoop.E2" lane="E_2" freq="100" pos="-27.78" file="inductionLoop.E2.xml"/>
    <inductionLoop id="inductionLoop.E3" lane="E_3" freq="100" pos="-27.78" file="inductionLoop.E3.xml"/>

    <inductionLoop id="inductionLoop.W0" lane="W_0" freq="100" pos="-27.78" file="inductionLoop.W0.xml"/>
    <inductionLoop id="inductionLoop.W1" lane="W_1" freq="100" pos="-27.78" file="inductionLoop.W1.xml"/>
    <inductionLoop id="inductionLoop.W2" lane="W_2" freq="100" pos="-27.78" file="inductionLoop.W2.xml"/>
    <inductionLoop id="inductionLoop.W3" lane="W_3" freq="100" pos="-27.78" file="inductionLoop.W3.xml"/>
    <inductionLoop id="inductionLoop.W4" lane="W_4" freq="100" pos="-27.78" file="inductionLoop.W4.xml"/>

    <inductionLoop id="inductionLoop.N0" lane="N_0" freq="100" pos="-27.78" file="inductionLoop.N0.xml"/>
    <inductionLoop id="inductionLoop.N1" lane="N_1" freq="100" pos="-27.78" file="inductionLoop.N1.xml"/>
    <inductionLoop id="inductionLoop.N2" lane="N_2" freq="100" pos="-27.78" file="inductionLoop.N2.xml"/>
    <inductionLoop id="inductionLoop.N3" lane="N_3" freq="100" pos="-27.78" file="inductionLoop.N3.xml"/>

    <inductionLoop id="inductionLoop.S0" lane="S_0" freq="100" pos="-27.78" file="inductionLoop.S0.xml"/>
    <inductionLoop id="inductionLoop.S1" lane="S_1" freq="100" pos="-27.78" file="inductionLoop.S1.xml"/>
    <inductionLoop id="inductionLoop.S2" lane="S_2" freq="100" pos="-27.78" file="inductionLoop.S2.xml"/>
    <inductionLoop id="inductionLoop.S3" lane="S_3" freq="100" pos="-27.78" file="inductionLoop.S3.xml"/>

</additional>