<?xml version="1.0" encoding="UTF-8"?>

<!-- generated on 2023-08-10 19:17:33 by Eclipse SUMO netedit Version 1.17.0
<configuration xmlns:xsi="http://www.w3.org/2001/XMLSchema-instance" xsi:noNamespaceSchemaLocation="http://sumo.dlr.de/xsd/netconvertConfiguration.xsd">

    <input>
        <sumo-net-file value="C:\Users\G513\Desktop\Capstone\sathorn-surasak-master\traci_env\traci_env\envs\Data\intersection.net.xml"/>
    </input>

    <output>
        <output-file value="C:\Users\G513\Desktop\Capstone\sathorn-surasak-master\traci_env\traci_env\envs\Data\intersection.net.xml"/>
    </output>

    <processing>
        <geometry.min-radius.fix.railways value="false"/>
        <geometry.max-grade.fix value="false"/>
        <offset.disable-normalization value="true"/>
        <lefthand value="1"/>
    </processing>

    <junctions>
        <no-turnarounds value="true"/>
        <junctions.corner-detail value="5"/>
        <junctions.limit-turn-speed value="5.50"/>
        <rectangular-lane-cut value="0"/>
    </junctions>

    <pedestrian>
        <walkingareas value="0"/>
    </pedestrian>

</configuration>
-->

<net version="1.16" junctionCornerDetail="5" lefthand="true" limitTurnSpeed="5.50" xmlns:xsi="http://www.w3.org/2001/XMLSchema-instance" xsi:noNamespaceSchemaLocation="http://sumo.dlr.de/xsd/net_file.xsd">

    <location netOffset="0.00,0.00" convBoundary="-800.00,-800.00,800.00,800.00" origBoundary="-10000000000.00,-10000000000.00,10000000000.00,10000000000.00" projParameter="!"/>

    <edge id=":J21_0" function="internal">
        <lane id=":J21_0_0" index="0" speed="7.33" length="11.73" shape="-11.20,-20.00 -11.55,-16.15 -12.60,-13.40 -14.35,-11.75 -16.80,-11.20"/>
        <lane id=":J21_0_1" index="1" speed="8.67" length="16.85" shape="-8.00,-20.00 -8.55,-14.75 -10.20,-11.00 -12.95,-8.75 -16.80,-8.00"/>
    </edge>
    <edge id=":J21_2" function="internal">
        <lane id=":J21_2_0" index="0" speed="12.26" length="34.71" shape="-4.80,-20.00 -2.66,-12.38 2.72,-4.27 9.73,2.17 16.80,4.80"/>
        <lane id=":J21_2_1" index="1" speed="11.49" length="30.37" shape="-1.60,-20.00 0.06,-12.88 4.36,-5.87 10.28,-0.53 16.80,1.60"/>
    </edge>
    <edge id=":J21_4" function="internal">
        <lane id=":J21_4_0" index="0" speed="6.51" length="9.03" shape="16.80,-14.40 14.35,-14.75 12.60,-15.80 11.55,-17.55 11.20,-20.00"/>
    </edge>
    <edge id=":J21_5" function="internal">
        <lane id=":J21_5_0" index="0" speed="13.89" length="33.60" shape="16.80,-11.20 -16.80,-11.20"/>
        <lane id=":J21_5_1" index="1" speed="13.89" length="33.60" shape="16.80,-8.00 -16.80,-8.00"/>
        <lane id=":J21_5_2" index="2" speed="13.89" length="33.60" shape="16.80,-4.80 -16.80,-4.80"/>
        <lane id=":J21_5_3" index="3" speed="13.89" length="33.60" shape="16.80,-1.60 -16.80,-1.60"/>
    </edge>
    <edge id=":J21_9" function="internal">
        <lane id=":J21_9_0" index="0" speed="6.51" length="9.03" shape="11.20,16.80 11.55,14.35 12.60,12.60 14.35,11.55 16.80,11.20"/>
    </edge>
    <edge id=":J21_10" function="internal">
        <lane id=":J21_10_0" index="0" speed="13.89" length="37.33" shape="11.20,16.80 8.00,-20.00"/>
        <lane id=":J21_10_1" index="1" speed="13.89" length="37.33" shape="11.20,16.80 10.20,5.80 8.00,-1.60 5.80,-9.00 4.80,-20.00"/>
        <lane id=":J21_10_2" index="2" speed="13.89" length="37.33" shape="8.00,16.80 7.00,5.80 4.80,-1.60 2.60,-9.00 1.60,-20.00"/>
    </edge>
    <edge id=":J21_13" function="internal">
        <lane id=":J21_13_0" index="0" speed="12.62" length="36.84" shape="8.00,16.80 5.38,9.17 -1.07,1.07 -9.17,-5.38 -16.80,-8.00"/>
        <lane id=":J21_13_1" index="1" speed="11.87" length="32.49" shape="4.80,16.80 2.68,9.67 -2.67,2.67 -9.67,-2.68 -16.80,-4.80"/>
        <lane id=":J21_13_2" index="2" speed="11.07" length="28.10" shape="1.60,16.80 -0.06,10.27 -4.35,4.35 -10.27,0.06 -16.80,-1.60"/>
    </edge>
    <edge id=":J21_16" function="internal">
        <lane id=":J21_16_0" index="0" speed="13.89" length="33.60" shape="-16.80,11.20 16.80,11.20"/>
        <lane id=":J21_16_1" index="1" speed="13.89" length="33.60" shape="-16.80,8.00 16.80,8.00"/>
        <lane id=":J21_16_2" index="2" speed="13.89" length="33.60" shape="-16.80,4.80 16.80,4.80"/>
        <lane id=":J21_16_3" index="3" speed="13.89" length="33.60" shape="-16.80,1.60 16.80,1.60"/>
    </edge>

    <edge id="-E" from="J21" to="J22" priority="-1" length="800.00" shape="0.00,0.00 -600.00,0.00 -400.00,0.00 -300.00,0.00 -600.00,0.00 -500.00,0.00 -800.00,0.00">
        <lane id="-E_0" index="0" speed="13.89" length="800.00" shape="-16.80,-11.20 -400.00,-11.20 -800.00,-11.20"/>
        <lane id="-E_1" index="1" speed="13.89" length="800.00" shape="-16.80,-8.00 -400.00,-8.00 -800.00,-8.00"/>
        <lane id="-E_2" index="2" speed="13.89" length="800.00" shape="-16.80,-4.80 -400.00,-4.80 -800.00,-4.80"/>
        <lane id="-E_3" index="3" speed="13.89" length="800.00" shape="-16.80,-1.60 -400.00,-1.60 -800.00,-1.60"/>
    </edge>
    <edge id="-N" from="J21" to="J23" priority="-1" length="800.00">
        <lane id="-N_0" index="0" speed="13.89" length="800.00" shape="11.20,-20.00 11.20,-800.00"/>
        <lane id="-N_1" index="1" speed="13.89" length="800.00" shape="8.00,-20.00 8.00,-800.00"/>
        <lane id="-N_2" index="2" speed="13.89" length="800.00" shape="4.80,-20.00 4.80,-800.00"/>
        <lane id="-N_3" index="3" speed="13.89" length="800.00" shape="1.60,-20.00 1.60,-800.00"/>
    </edge>
    <edge id="-W" from="J21" to="J24" priority="-1" length="800.00">
        <lane id="-W_0" index="0" speed="13.89" length="800.00" shape="16.80,11.20 800.00,11.20"/>
        <lane id="-W_1" index="1" speed="13.89" length="800.00" shape="16.80,8.00 800.00,8.00"/>
        <lane id="-W_2" index="2" speed="13.89" length="800.00" shape="16.80,4.80 800.00,4.80"/>
        <lane id="-W_3" index="3" speed="13.89" length="800.00" shape="16.80,1.60 800.00,1.60"/>
    </edge>
    <edge id="E" from="J22" to="J21" priority="-1" length="800.00">
        <lane id="E_0" index="0" speed="13.89" length="800.00" shape="-800.00,11.20 -16.80,11.20"/>
        <lane id="E_1" index="1" speed="13.89" length="800.00" shape="-800.00,8.00 -16.80,8.00"/>
        <lane id="E_2" index="2" speed="13.89" length="800.00" shape="-800.00,4.80 -16.80,4.80"/>
        <lane id="E_3" index="3" speed="13.89" length="800.00" shape="-800.00,1.60 -16.80,1.60"/>
    </edge>
    <edge id="N" from="J23" to="J21" priority="-1" length="800.00">
        <lane id="N_0" index="0" speed="13.89" length="800.00" shape="-11.20,-800.00 -11.20,-20.00"/>
        <lane id="N_1" index="1" speed="13.89" length="800.00" shape="-8.00,-800.00 -8.00,-20.00"/>
        <lane id="N_2" index="2" speed="13.89" length="800.00" shape="-4.80,-800.00 -4.80,-20.00"/>
        <lane id="N_3" index="3" speed="13.89" length="800.00" shape="-1.60,-800.00 -1.60,-20.00"/>
    </edge>
    <edge id="S" from="J20" to="J21" priority="-1" length="800.00" shape="0.00,800.00 0.00,700.00 0.00,400.00 0.00,0.00">
        <lane id="S_0" index="0" speed="13.89" length="800.00" shape="11.20,800.00 11.20,700.00 11.20,400.00 11.20,16.80"/>
        <lane id="S_1" index="1" speed="13.89" length="800.00" shape="8.00,800.00 8.00,700.00 8.00,400.00 8.00,16.80"/>
        <lane id="S_2" index="2" speed="13.89" length="800.00" shape="4.80,800.00 4.80,700.00 4.80,400.00 4.80,16.80"/>
        <lane id="S_3" index="3" speed="13.89" length="800.00" shape="1.60,800.00 1.60,700.00 1.60,400.00 1.60,16.80"/>
    </edge>
    <edge id="W" from="J24" to="J21" priority="-1" length="800.00">
        <lane id="W_0" index="0" speed="13.89" length="800.00" shape="800.00,-14.40 16.80,-14.40"/>
        <lane id="W_1" index="1" speed="13.89" length="800.00" shape="800.00,-11.20 16.80,-11.20"/>
        <lane id="W_2" index="2" speed="13.89" length="800.00" shape="800.00,-8.00 16.80,-8.00"/>
        <lane id="W_3" index="3" speed="13.89" length="800.00" shape="800.00,-4.80 16.80,-4.80"/>
        <lane id="W_4" index="4" speed="13.89" length="800.00" shape="800.00,-1.60 16.80,-1.60"/>
    </edge>

    <tlLogic id="J21" type="actuated" programID="1_ACTUATED" offset="0">
        <phase duration="27" state="rrrrGGGGGrrrrrrrGGGG" minDur="5" maxDur="50"/>
        <phase duration="3"  state="rrrrGyyyyrrrrrrryyyy"/>
        <phase duration="27" state="rrrrGrrrrgGGGgggrrrr" minDur="5" maxDur="50"/>
        <phase duration="3"  state="rrrrGrrrryyyyyyyrrrr"/>
        <phase duration="27" state="GGggGrrrrrrrrrrrrrrr" minDur="5" maxDur="50"/>
        <phase duration="3"  state="yyyyGrrrrrrrrrrrrrrr"/>
    </tlLogic>
    <tlLogic id="J21" type="static" programID="2_STATIC" offset="0">
        <phase duration="27" state="rrrrGGGGGrrrrrrrGGGG"/>
        <phase duration="3"  state="rrrrGyyyyrrrrrrryyyy"/>
        <phase duration="27" state="rrrrGrrrrgGGGgggrrrr"/>
        <phase duration="3"  state="rrrrGrrrryyyyyyyrrrr"/>
        <phase duration="27" state="GGggGrrrrrrrrrrrrrrr"/>
        <phase duration="3"  state="yyyyGrrrrrrrrrrrrrrr"/>
    </tlLogic>

    <junction id="J20" type="dead_end" x="0.00" y="800.00" incLanes="" intLanes="" shape="0.00,800.00 12.80,800.00"/>
    <junction id="J21" type="traffic_light" x="0.00" y="0.00" incLanes="N_0 N_1 N_2 N_3 W_0 W_1 W_2 W_3 W_4 S_0 S_1 S_2 S_3 E_0 E_1 E_2 E_3" intLanes=":J21_0_0 :J21_0_1 :J21_2_0 :J21_2_1 :J21_4_0 :J21_5_0 :J21_5_1 :J21_5_2 :J21_5_3 :J21_9_0 :J21_10_0 :J21_10_1 :J21_10_2 :J21_13_0 :J21_13_1 :J21_13_2 :J21_16_0 :J21_16_1 :J21_16_2 :J21_16_3" shape="-12.80,-20.00 12.80,-20.00 13.24,-17.78 13.80,-17.00 14.58,-16.44 15.58,-16.11 16.80,-16.00 16.80,12.80 14.58,13.24 13.80,13.80 13.24,14.58 12.91,15.58 12.80,16.80 0.00,16.80 -1.87,14.58 -4.20,13.80 -7.47,13.24 -11.67,12.91 -16.80,12.80 -16.80,-12.80 -14.58,-13.60 -13.80,-14.60 -13.24,-16.00 -12.91,-17.80">
        <request index="0"  response="00000000000111100000" foes="00001110000111100000" cont="0"/>
        <request index="1"  response="00000000000111100000" foes="00001110000111100000" cont="0"/>
        <request index="2"  response="11110001110111100000" foes="11110001110111100000" cont="0"/>
        <request index="3"  response="11110001110111100000" foes="11110001110111100000" cont="0"/>
        <request index="4"  response="00000000000000000000" foes="00000000000000000000" cont="0"/>
        <request index="5"  response="00000000000000000000" foes="00001111110000001111" cont="0"/>
        <request index="6"  response="00000000000000000000" foes="00001111110000001111" cont="0"/>
        <request index="7"  response="00000000000000000000" foes="00001111110000001111" cont="0"/>
        <request index="8"  response="00000000000000000000" foes="00001111110000001111" cont="0"/>
        <request index="9"  response="11110000000000000000" foes="11110000000000000000" cont="0"/>
        <request index="10" response="11110000000111100000" foes="11110000000111101100" cont="0"/>
        <request index="11" response="11110000000111100000" foes="11110000000111101100" cont="0"/>
        <request index="12" response="11110000000111100000" foes="11110000000111101100" cont="0"/>
        <request index="13" response="11110000000111100011" foes="11110000000111100011" cont="0"/>
        <request index="14" response="11110000000111100011" foes="11110000000111100011" cont="0"/>
        <request index="15" response="11110000000111100011" foes="11110000000111100011" cont="0"/>
        <request index="16" response="00000000000000000000" foes="00001111111000001100" cont="0"/>
        <request index="17" response="00000000000000000000" foes="00001111111000001100" cont="0"/>
        <request index="18" response="00000000000000000000" foes="00001111111000001100" cont="0"/>
        <request index="19" response="00000000000000000000" foes="00001111111000001100" cont="0"/>
    </junction>
    <junction id="J22" type="dead_end" x="-800.00" y="0.00" incLanes="-E_0 -E_1 -E_2 -E_3" intLanes="" shape="-800.00,-0.00 -800.00,-12.80 -800.00,-0.00"/>
    <junction id="J23" type="dead_end" x="0.00" y="-800.00" incLanes="-N_0 -N_1 -N_2 -N_3" intLanes="" shape="0.00,-800.00 12.80,-800.00 0.00,-800.00"/>
    <junction id="J24" type="dead_end" x="800.00" y="0.00" incLanes="-W_0 -W_1 -W_2 -W_3" intLanes="" shape="800.00,-0.00 800.00,12.80 800.00,-0.00"/>

    <connection from="E" to="-W" fromLane="0" toLane="0" via=":J21_16_0" tl="J21" linkIndex="16" dir="s" state="O"/>
    <connection from="E" to="-W" fromLane="1" toLane="1" via=":J21_16_1" tl="J21" linkIndex="17" dir="s" state="O"/>
    <connection from="E" to="-W" fromLane="2" toLane="2" via=":J21_16_2" tl="J21" linkIndex="18" dir="s" state="O"/>
    <connection from="E" to="-W" fromLane="3" toLane="3" via=":J21_16_3" tl="J21" linkIndex="19" dir="s" state="O"/>
    <connection from="N" to="-E" fromLane="0" toLane="0" via=":J21_0_0" tl="J21" linkIndex="0" dir="l" state="o"/>
    <connection from="N" to="-E" fromLane="1" toLane="1" via=":J21_0_1" tl="J21" linkIndex="1" dir="l" state="o"/>
    <connection from="N" to="-W" fromLane="2" toLane="2" via=":J21_2_0" tl="J21" linkIndex="2" dir="r" state="o"/>
    <connection from="N" to="-W" fromLane="3" toLane="3" via=":J21_2_1" tl="J21" linkIndex="3" dir="r" state="o"/>
    <connection from="S" to="-W" fromLane="0" toLane="0" via=":J21_9_0" tl="J21" linkIndex="9" dir="l" state="o"/>
    <connection from="S" to="-N" fromLane="0" toLane="1" via=":J21_10_0" tl="J21" linkIndex="10" dir="s" state="o"/>
    <connection from="S" to="-N" fromLane="0" toLane="2" via=":J21_10_1" tl="J21" linkIndex="11" dir="s" state="o"/>
    <connection from="S" to="-N" fromLane="1" toLane="3" via=":J21_10_2" tl="J21" linkIndex="12" dir="s" state="o"/>
    <connection from="S" to="-E" fromLane="1" toLane="1" via=":J21_13_0" tl="J21" linkIndex="13" dir="r" state="o"/>
    <connection from="S" to="-E" fromLane="2" toLane="2" via=":J21_13_1" tl="J21" linkIndex="14" dir="r" state="o"/>
    <connection from="S" to="-E" fromLane="3" toLane="3" via=":J21_13_2" tl="J21" linkIndex="15" dir="r" state="o"/>
    <connection from="W" to="-N" fromLane="0" toLane="0" via=":J21_4_0" tl="J21" linkIndex="4" dir="l" state="O"/>
    <connection from="W" to="-E" fromLane="1" toLane="0" via=":J21_5_0" tl="J21" linkIndex="5" dir="s" state="O"/>
    <connection from="W" to="-E" fromLane="2" toLane="1" via=":J21_5_1" tl="J21" linkIndex="6" dir="s" state="O"/>
    <connection from="W" to="-E" fromLane="3" toLane="2" via=":J21_5_2" tl="J21" linkIndex="7" dir="s" state="O"/>
    <connection from="W" to="-E" fromLane="4" toLane="3" via=":J21_5_3" tl="J21" linkIndex="8" dir="s" state="O"/>

    <connection from=":J21_0" to="-E" fromLane="0" toLane="0" dir="l" state="M"/>
    <connection from=":J21_0" to="-E" fromLane="1" toLane="1" dir="l" state="M"/>
    <connection from=":J21_2" to="-W" fromLane="0" toLane="2" dir="r" state="M"/>
    <connection from=":J21_2" to="-W" fromLane="1" toLane="3" dir="r" state="M"/>
    <connection from=":J21_4" to="-N" fromLane="0" toLane="0" dir="l" state="M"/>
    <connection from=":J21_5" to="-E" fromLane="0" toLane="0" dir="s" state="M"/>
    <connection from=":J21_5" to="-E" fromLane="1" toLane="1" dir="s" state="M"/>
    <connection from=":J21_5" to="-E" fromLane="2" toLane="2" dir="s" state="M"/>
    <connection from=":J21_5" to="-E" fromLane="3" toLane="3" dir="s" state="M"/>
    <connection from=":J21_9" to="-W" fromLane="0" toLane="0" dir="l" state="M"/>
    <connection from=":J21_10" to="-N" fromLane="0" toLane="1" dir="s" state="M"/>
    <connection from=":J21_10" to="-N" fromLane="1" toLane="2" dir="s" state="M"/>
    <connection from=":J21_10" to="-N" fromLane="2" toLane="3" dir="s" state="M"/>
    <connection from=":J21_13" to="-E" fromLane="0" toLane="1" dir="r" state="M"/>
    <connection from=":J21_13" to="-E" fromLane="1" toLane="2" dir="r" state="M"/>
    <connection from=":J21_13" to="-E" fromLane="2" toLane="3" dir="r" state="M"/>
    <connection from=":J21_16" to="-W" fromLane="0" toLane="0" dir="s" state="M"/>
    <connection from=":J21_16" to="-W" fromLane="1" toLane="1" dir="s" state="M"/>
    <connection from=":J21_16" to="-W" fromLane="2" toLane="2" dir="s" state="M"/>
    <connection from=":J21_16" to="-W" fromLane="3" toLane="3" dir="s" state="M"/>

</net>
