<routes>
        <vType id="passenger" accel="1.895" decel="4.5" sigma="0.5" length="5" minGap="2.5" maxSpeed="16.67" guiShape="passenger" color="255,255,0"/>

        <route id="Eastbound.L" edges="W -N" />
        <route id="Eastbound.T" edges="W -E" />

        <route id="Westbound.T" edges="E -W" />

        <route id="Northbound.TR" edges="S -N" />
        <route id="Northbound.TL" edges="S -W" />
        <route id="Northbound.R" edges="S -E" />

        <route id="Southbound.L" edges="N -E" />
        <route id="Southbound.R" edges="N -W" />
</routes>
